LAMMPS (2 Aug 2023 - Update 1)
Loaded 1 plugins from C:\Users\guill\AppData\Local\LAMMPS 64-bit 2Aug2023 with GUI\plugins
# 3d Lennard-Jones gas
units           lj
atom_style      atomic
lattice         fcc 0.8442
Lattice spacing in x,y,z = 1.6795962 1.6795962 1.6795962
region          box block 0 4 0 4 0 4
create_box      1 box
Created orthogonal box = (0 0 0) to (6.7183848 6.7183848 6.7183848)
create_atoms    1 box
Created 256 atoms
mass            1 1.0

velocity        all create 1.44 87287 loop geom

pair_style      lj/cut 2.5
pair_coeff      1 1 1.0 1.0 2.5

neighbor        0.3 bin
neigh_modify    delay 0 every 20 check no

fix             1 all nve

thermo          50
run             1000
Generated 0 of 0 mixed pair_coeff terms from geometric mixing rule
Step          Temp          E_pair         E_mol          TotEng         Press
0   1.44          -6.7733681      0             -4.6218056     -5.0244179
Averages over the last 11 of 21 rows, steps 500 to 1000:
Temp E_pair E_mol TotEng Press
0.724126 -5.71276 0 -4.63081 0.427232
Loop time of 0.221099 on 1 procs for 1000 steps with 256 atoms
